<?xml version='1.0' encoding='UTF-8'?>
<routes xmlns:xsi="http://www.w3.org/2001/XMLSchema-instance" xsi:noNamespaceSchemaLocation="http://sumo.dlr.de/xsd/routes_file.xsd">
  <route id="routehighway_0_0" edges="highway_0"/>
  <flow id="idm_highway_inflow_00" route="routehighway_0_0" type="idm" departLane="first" departSpeed="0" begin="1" end="86400" vehsPerHour="4000.0"/>
  <flow id="rl_highway_inflow_1" route="routehighway_0_0" type="rl" departLane="first" departSpeed="0" begin="1" end="86400" vehsPerHour="200"/>
</routes>
