<?xml version='1.0' encoding='UTF-8'?>
<routes xmlns:xsi="http://www.w3.org/2001/XMLSchema-instance" xsi:noNamespaceSchemaLocation="http://sumo.dlr.de/xsd/routes_file.xsd">
  <route id="routehighway_0_0" edges="highway_0 highway_1 highway_2"/>
  <route id="routehighway_0_1" edges="highway_0 highway_1 off_ramp_0"/>
  <route id="routeon_ramp_0_0" edges="on_ramp_0 highway_1 highway_2"/>
  <route id="routeon_ramp_0_1" edges="on_ramp_0 highway_1 off_ramp_0"/>
  <flow id="highway_flow_00" route="routehighway_0_0" type="human" departLane="free" departSpeed="max" begin="1" end="86400" vehsPerHour="3375.0"/>
  <flow id="highway_flow_001" route="routehighway_0_1" type="human" departLane="free" departSpeed="max" begin="1" end="86400" vehsPerHour="1125.0"/>
  <flow id="on_ramp_flow_10" route="routeon_ramp_0_0" type="human" departLane="first" departSpeed="max" begin="1" end="86400" vehsPerHour="300.0"/>
  <flow id="on_ramp_flow_101" route="routeon_ramp_0_1" type="human" departLane="first" departSpeed="max" begin="1" end="86400" vehsPerHour="100.0"/>
</routes>
