<?xml version='1.0' encoding='UTF-8'?>
<configuration xmlns:xsi="http://www.w3.org/2001/XMLSchema-instance" xsi:noNamespaceSchemaLocation="http://sumo.dlr.de/xsd/sumoConfiguration.xsd">
  <input>
    <net-file value="highway_non_rl_scratch_20201005-0054031601880843.072148.net.xml"/>
    <route-files value="highway_non_rl_scratch_20201005-0054031601880843.072148.rou.xml"/>
    <additional-files value="highway_non_rl_scratch_20201005-0054031601880843.072148.add.xml"/>
    <gui-settings-file value="highway_non_rl_scratch_20201005-0054031601880843.072148.gui.cfg"/>
  </input>
  <time>
    <begin value="0"/>
  </time>
</configuration>
