<?xml version='1.0' encoding='UTF-8'?>
<configuration xmlns:xsi="http://www.w3.org/2001/XMLSchema-instance" xsi:noNamespaceSchemaLocation="http://sumo.dlr.de/xsd/sumoConfiguration.xsd">
  <input>
    <net-file value="highway_noRL_0_20201005-1313471601925227.408687.net.xml"/>
    <route-files value="highway_noRL_0_20201005-1313471601925227.408687.rou.xml"/>
    <additional-files value="highway_noRL_0_20201005-1313471601925227.408687.add.xml"/>
    <gui-settings-file value="highway_noRL_0_20201005-1313471601925227.408687.gui.cfg"/>
  </input>
  <time>
    <begin value="0"/>
  </time>
</configuration>
