<?xml version='1.0' encoding='UTF-8'?>
<configuration xmlns:xsi="http://www.w3.org/2001/XMLSchema-instance" xsi:noNamespaceSchemaLocation="http://sumo.dlr.de/xsd/sumoConfiguration.xsd">
  <input>
    <net-file value="highway_5_experiment_20201005-0041401601880100.943156.net.xml"/>
    <route-files value="highway_5_experiment_20201005-0041401601880100.943156.rou.xml"/>
    <additional-files value="highway_5_experiment_20201005-0041401601880100.943156.add.xml"/>
    <gui-settings-file value="highway_5_experiment_20201005-0041401601880100.943156.gui.cfg"/>
  </input>
  <time>
    <begin value="0"/>
  </time>
</configuration>
