<?xml version='1.0' encoding='UTF-8'?>
<configuration xmlns:xsi="http://www.w3.org/2001/XMLSchema-instance" xsi:noNamespaceSchemaLocation="http://sumo.dlr.de/xsd/sumoConfiguration.xsd">
  <input>
    <net-file value="highway_noRL_10_20201005-1041141601916074.2514281.net.xml"/>
    <route-files value="highway_noRL_10_20201005-1041141601916074.2514281.rou.xml"/>
    <additional-files value="highway_noRL_10_20201005-1041141601916074.2514281.add.xml"/>
    <gui-settings-file value="highway_noRL_10_20201005-1041141601916074.2514281.gui.cfg"/>
  </input>
  <time>
    <begin value="0"/>
  </time>
</configuration>
