<?xml version='1.0' encoding='UTF-8'?>
<routes xmlns:xsi="http://www.w3.org/2001/XMLSchema-instance" xsi:noNamespaceSchemaLocation="http://sumo.dlr.de/xsd/routes_file.xsd">
  <route id="routehighway_0_0" edges="highway_0"/>
  <flow id="flow_00" route="routehighway_0_0" type="human" departLane="free" departSpeed="20" begin="1" end="86400" probability="0.25"/>
</routes>
