<?xml version='1.0' encoding='UTF-8'?>
<configuration xmlns:xsi="http://www.w3.org/2001/XMLSchema-instance" xsi:noNamespaceSchemaLocation="http://sumo.dlr.de/xsd/sumoConfiguration.xsd">
  <input>
    <net-file value="highway_non_rl_scratch_20201004-2354541601877294.155554.net.xml"/>
    <route-files value="highway_non_rl_scratch_20201004-2354541601877294.155554.rou.xml"/>
    <additional-files value="highway_non_rl_scratch_20201004-2354541601877294.155554.add.xml"/>
    <gui-settings-file value="highway_non_rl_scratch_20201004-2354541601877294.155554.gui.cfg"/>
  </input>
  <time>
    <begin value="0"/>
  </time>
</configuration>
