<?xml version='1.0' encoding='UTF-8'?>
<configuration xmlns:xsi="http://www.w3.org/2001/XMLSchema-instance" xsi:noNamespaceSchemaLocation="http://sumo.dlr.de/xsd/sumoConfiguration.xsd">
  <input>
    <net-file value="highway-ramp-noRL_20201105-0037521604561872.016416.net.xml"/>
    <route-files value="highway-ramp-noRL_20201105-0037521604561872.016416.rou.xml"/>
    <additional-files value="highway-ramp-noRL_20201105-0037521604561872.016416.add.xml"/>
    <gui-settings-file value="highway-ramp-noRL_20201105-0037521604561872.016416.gui.cfg"/>
  </input>
  <time>
    <begin value="0"/>
  </time>
</configuration>
