<?xml version='1.0' encoding='UTF-8'?>
<routes xmlns:xsi="http://www.w3.org/2001/XMLSchema-instance" xsi:noNamespaceSchemaLocation="http://sumo.dlr.de/xsd/routes_file.xsd">
  <route id="routehighway_0_0" edges="highway_0"/>
  <flow id="idm_highway_inflow_0" route="human_highway_inflow_00" type="idm" departLane="free" departSpeed="max" begin="1" end="86400" vehsPerHour="-160"/>
  <flow id="rl_highway_inflow_1" route="AV_highway_inflow_10" type="rl" departLane="free" departSpeed="max" begin="1" end="86400" vehsPerHour="200"/>
</routes>
