<?xml version='1.0' encoding='UTF-8'?>
<configuration xmlns:xsi="http://www.w3.org/2001/XMLSchema-instance" xsi:noNamespaceSchemaLocation="http://sumo.dlr.de/xsd/sumoConfiguration.xsd">
  <input>
    <net-file value="highway-ramp-noRL-5_20201014-0037351602657455.710521.net.xml"/>
    <route-files value="highway-ramp-noRL-5_20201014-0037351602657455.710521.rou.xml"/>
    <additional-files value="highway-ramp-noRL-5_20201014-0037351602657455.710521.add.xml"/>
    <gui-settings-file value="highway-ramp-noRL-5_20201014-0037351602657455.710521.gui.cfg"/>
  </input>
  <time>
    <begin value="0"/>
  </time>
</configuration>
