<?xml version='1.0' encoding='UTF-8'?>
<configuration xmlns:xsi="http://www.w3.org/2001/XMLSchema-instance" xsi:noNamespaceSchemaLocation="http://sumo.dlr.de/xsd/sumoConfiguration.xsd">
  <input>
    <net-file value="multiagent_highway_20201001-0057511601535471.994829.net.xml"/>
    <route-files value="multiagent_highway_20201001-0057511601535471.994829.rou.xml"/>
    <additional-files value="multiagent_highway_20201001-0057511601535471.994829.add.xml"/>
    <gui-settings-file value="multiagent_highway_20201001-0057511601535471.994829.gui.cfg"/>
  </input>
  <time>
    <begin value="0"/>
  </time>
</configuration>
