<?xml version='1.0' encoding='UTF-8'?>
<configuration xmlns:xsi="http://www.w3.org/2001/XMLSchema-instance" xsi:noNamespaceSchemaLocation="http://sumo.dlr.de/xsd/sumoConfiguration.xsd">
  <input>
    <net-file value="multiagent_highway_20200928-1136501601314610.770815.net.xml"/>
    <route-files value="multiagent_highway_20200928-1136501601314610.770815.rou.xml"/>
    <additional-files value="multiagent_highway_20200928-1136501601314610.770815.add.xml"/>
    <gui-settings-file value="multiagent_highway_20200928-1136501601314610.770815.gui.cfg"/>
  </input>
  <time>
    <begin value="0"/>
  </time>
</configuration>
