<?xml version='1.0' encoding='UTF-8'?>
<routes xmlns:xsi="http://www.w3.org/2001/XMLSchema-instance" xsi:noNamespaceSchemaLocation="http://sumo.dlr.de/xsd/routes_file.xsd">
  <route id="routehighway_0_0" edges="highway_0 highway_1 highway_2"/>
  <route id="routehighway_0_1" edges="highway_0 highway_1 off_ramp_0"/>
  <route id="routeon_ramp_0_0" edges="on_ramp_0 highway_1 highway_2"/>
  <route id="routeon_ramp_0_1" edges="on_ramp_0 highway_1 off_ramp_0"/>
  <flow id="idm_highway_inflow_00" route="routehighway_0_0" type="idm" departLane="free" departSpeed="max" begin="1" end="86400" vehsPerHour="3000.0"/>
  <flow id="idm_highway_inflow_001" route="routehighway_0_1" type="idm" departLane="free" departSpeed="max" begin="1" end="86400" vehsPerHour="1000.0"/>
  <flow id="rl_highway_inflow_1" route="routehighway_0_0" type="rl" departLane="free" departSpeed="max" begin="1" end="86400" vehsPerHour="800"/>
  <flow id="idm_on_ramp_inflow_20" route="routeon_ramp_0_0" type="idm" departLane="free" departSpeed="max" begin="1" end="86400" vehsPerHour="337.5"/>
  <flow id="idm_on_ramp_inflow_201" route="routeon_ramp_0_1" type="idm" departLane="free" departSpeed="max" begin="1" end="86400" vehsPerHour="112.5"/>
</routes>
