<?xml version='1.0' encoding='UTF-8'?>
<configuration xmlns:xsi="http://www.w3.org/2001/XMLSchema-instance" xsi:noNamespaceSchemaLocation="http://sumo.dlr.de/xsd/sumoConfiguration.xsd">
  <input>
    <net-file value="multiagent_highway_20201102-0108531604304533.193516.net.xml"/>
    <route-files value="multiagent_highway_20201102-0108531604304533.193516.rou.xml"/>
    <additional-files value="multiagent_highway_20201102-0108531604304533.193516.add.xml"/>
    <gui-settings-file value="multiagent_highway_20201102-0108531604304533.193516.gui.cfg"/>
  </input>
  <time>
    <begin value="0"/>
  </time>
</configuration>
