<?xml version='1.0' encoding='UTF-8'?>
<configuration xmlns:xsi="http://www.w3.org/2001/XMLSchema-instance" xsi:noNamespaceSchemaLocation="http://sumo.dlr.de/xsd/sumoConfiguration.xsd">
  <input>
    <net-file value="ring_20210112-2050331610502633.501218.net.xml"/>
    <route-files value="ring_20210112-2050331610502633.501218.rou.xml"/>
    <additional-files value="ring_20210112-2050331610502633.501218.add.xml"/>
    <gui-settings-file value="ring_20210112-2050331610502633.501218.gui.cfg"/>
  </input>
  <time>
    <begin value="0"/>
  </time>
</configuration>
