<?xml version='1.0' encoding='UTF-8'?>
<configuration xmlns:xsi="http://www.w3.org/2001/XMLSchema-instance" xsi:noNamespaceSchemaLocation="http://sumo.dlr.de/xsd/sumoConfiguration.xsd">
  <input>
    <net-file value="ring_example_20200921-1043531600706633.179371.net.xml"/>
    <route-files value="ring_example_20200921-1043531600706633.179371.rou.xml"/>
    <additional-files value="ring_example_20200921-1043531600706633.179371.add.xml"/>
    <gui-settings-file value="ring_example_20200921-1043531600706633.179371.gui.cfg"/>
  </input>
  <time>
    <begin value="0"/>
  </time>
</configuration>
