<?xml version='1.0' encoding='UTF-8'?>
<nodes xmlns:xsi="http://www.w3.org/2001/XMLSchema-instance" xsi:noNamespaceSchemaLocation="http://sumo.dlr.de/xsd/nodes_file.xsd">
  <node id="highway_0" x="0" y="0" radius="10"/>
  <node id="highway_1" x="300" y="0" radius="10"/>
</nodes>
