<?xml version='1.0' encoding='UTF-8'?>
<configuration xmlns:xsi="http://www.w3.org/2001/XMLSchema-instance" xsi:noNamespaceSchemaLocation="http://sumo.dlr.de/xsd/netconvertConfiguration.xsd">
  <input>
    <node-files value="multiagent_highway_20201001-0057331601535453.2174149.nod.xml"/>
    <edge-files value="multiagent_highway_20201001-0057331601535453.2174149.edg.xml"/>
    <type-files value="multiagent_highway_20201001-0057331601535453.2174149.typ.xml"/>
  </input>
  <output>
    <output-file value="multiagent_highway_20201001-0057331601535453.2174149.net.xml"/>
  </output>
  <processing>
    <no-internal-links value="false"/>
    <no-turnarounds value="true"/>
  </processing>
</configuration>
